[General]
network = buslora3.simulations.BusNetwork
sim-time-limit = 60s
simtime-resolution = 1us

